output/1_TAP2_1/Cargas_BT_SA06_1_TAP2_1.dss
New "Load.BT_6425_M1" bus1="UC15168.1.4" phases=1 conn=delta model=2 kv=0.22 kw = 977.2787926509714 pf=0.92 status=variable vmaxpu=1.5 vminpu=0.93 daily="RES_2_SA" 
New "Load.BT_6425_M2" bus1="UC15168.1.4" phases=1 conn=delta model=3 kv=0.22 kw = 977.2787926509714 pf=0.92 status=variable vmaxpu=1.5 vminpu=0.93 daily="RES_2_SA"
 
New "Load.BT_7259_M1" bus1="UC15169.1.2.3.4" phases=3 conn=delta model=2 kv=0.38 kw = 771.1859860375012 pf=0.92 status=variable vmaxpu=1.5 vminpu=0.93 daily="RES_2_SA" 
New "Load.BT_7259_M2" bus1="UC15169.1.2.3.4" phases=3 conn=delta model=3 kv=0.38 kw = 771.1859860375012 pf=0.92 status=variable vmaxpu=1.5 vminpu=0.93 daily="RES_2_SA"
 
New "Load.BT_352_M1" bus1="UC15174.1.4" phases=1 conn=delta model=2 kv=0.22 kw = 853.08988621385 pf=0.92 status=variable vmaxpu=1.5 vminpu=0.93 daily="RES_10_SA" 
New "Load.BT_352_M2" bus1="UC15174.1.4" phases=1 conn=delta model=3 kv=0.22 kw = 853.08988621385 pf=0.92 status=variable vmaxpu=1.5 vminpu=0.93 daily="RES_10_SA"
 
New "Load.BT_2941_M1" bus1="UC13788.3.4" phases=1 conn=delta model=2 kv=0.22 kw = 708.0285130430507 pf=0.92 status=variable vmaxpu=1.5 vminpu=0.93 daily="RES_2_SA" 
New "Load.BT_2941_M2" bus1="UC13788.3.4" phases=1 conn=delta model=3 kv=0.22 kw = 708.0285130430507 pf=0.92 status=variable vmaxpu=1.5 vminpu=0.93 daily="RES_2_SA"
 
New "Load.BT_714_M1" bus1="UC15175.1.2.3.4" phases=3 conn=delta model=2 kv=0.38 kw = 1017.167722963256 pf=0.92 status=variable vmaxpu=1.5 vminpu=0.93 daily="RES_2_SA" 
New "Load.BT_714_M2" bus1="UC15175.1.2.3.4" phases=3 conn=delta model=3 kv=0.38 kw = 1017.167722963256 pf=0.92 status=variable vmaxpu=1.5 vminpu=0.93 daily="RES_2_SA"
 
New "Load.BT_7479_M1" bus1="ET1_159.2.3.4" phases=2 conn=delta model=2 kv=0.38 kw = 759.7132617858582 pf=0.92 status=variable vmaxpu=1.5 vminpu=0.93 daily="RES_3_SA" 
New "Load.BT_7479_M2" bus1="ET1_159.2.3.4" phases=2 conn=delta model=3 kv=0.38 kw = 759.7132617858582 pf=0.92 status=variable vmaxpu=1.5 vminpu=0.93 daily="RES_3_SA"
 
New "Load.BT_7575_M1" bus1="UC15178.3.4" phases=1 conn=delta model=2 kv=0.22 kw = 1026.5672839117794 pf=0.92 status=variable vmaxpu=1.5 vminpu=0.93 daily="RES_1_SA" 
New "Load.BT_7575_M2" bus1="UC15178.3.4" phases=1 conn=delta model=3 kv=0.22 kw = 1026.5672839117794 pf=0.92 status=variable vmaxpu=1.5 vminpu=0.93 daily="RES_1_SA"
 
New "Load.BT_6438_M1" bus1="UC15180.1.4" phases=1 conn=delta model=2 kv=0.22 kw = 621.6024973664341 pf=0.92 status=variable vmaxpu=1.5 vminpu=0.93 daily="RES_2_SA" 
New "Load.BT_6438_M2" bus1="UC15180.1.4" phases=1 conn=delta model=3 kv=0.22 kw = 621.6024973664341 pf=0.92 status=variable vmaxpu=1.5 vminpu=0.93 daily="RES_2_SA"
 
New "Load.BT_387_M1" bus1="UC15581.1.2.3.4" phases=3 conn=delta model=2 kv=0.38 kw = 0.0 pf=0.92 status=variable vmaxpu=1.5 vminpu=0.93 daily="RES_3_SA" 
New "Load.BT_387_M2" bus1="UC15581.1.2.3.4" phases=3 conn=delta model=3 kv=0.38 kw = 0.0 pf=0.92 status=variable vmaxpu=1.5 vminpu=0.93 daily="RES_3_SA"
 
New "Load.BT_7928_M1" bus1="UC15838.3.4" phases=1 conn=delta model=2 kv=0.22 kw = 0.0 pf=0.92 status=variable vmaxpu=1.5 vminpu=0.93 daily="RES_7_SA" 
New "Load.BT_7928_M2" bus1="UC15838.3.4" phases=1 conn=delta model=3 kv=0.22 kw = 0.0 pf=0.92 status=variable vmaxpu=1.5 vminpu=0.93 daily="RES_7_SA"
 
New "Load.BT_8263_M1" bus1="UC14653.1.2.3.4" phases=3 conn=delta model=2 kv=0.38 kw = 0.0 pf=0.92 status=variable vmaxpu=1.5 vminpu=0.93 daily="RES_3_SA" 
New "Load.BT_8263_M2" bus1="UC14653.1.2.3.4" phases=3 conn=delta model=3 kv=0.38 kw = 0.0 pf=0.92 status=variable vmaxpu=1.5 vminpu=0.93 daily="RES_3_SA"
 
New "Load.BT_7436_M1" bus1="UC10919.3.4" phases=1 conn=delta model=2 kv=0.22 kw = 0.0 pf=0.92 status=variable vmaxpu=1.5 vminpu=0.93 daily="RES_3_SA" 
New "Load.BT_7436_M2" bus1="UC10919.3.4" phases=1 conn=delta model=3 kv=0.22 kw = 0.0 pf=0.92 status=variable vmaxpu=1.5 vminpu=0.93 daily="RES_3_SA"
 
New "Load.BT_2214_M1" bus1="UC16152.1.4" phases=1 conn=delta model=2 kv=0.22 kw = 0.0 pf=0.92 status=variable vmaxpu=1.5 vminpu=0.93 daily="RES_7_SA" 
New "Load.BT_2214_M2" bus1="UC16152.1.4" phases=1 conn=delta model=3 kv=0.22 kw = 0.0 pf=0.92 status=variable vmaxpu=1.5 vminpu=0.93 daily="RES_7_SA"
 
New "Load.BT_2922_M1" bus1="UC2530.1.4" phases=1 conn=delta model=2 kv=0.22 kw = 0.0 pf=0.92 status=variable vmaxpu=1.5 vminpu=0.93 daily="RES_3_SA" 
New "Load.BT_2922_M2" bus1="UC2530.1.4" phases=1 conn=delta model=3 kv=0.22 kw = 0.0 pf=0.92 status=variable vmaxpu=1.5 vminpu=0.93 daily="RES_3_SA"
 
New "Load.BT_8626_M1" bus1="UC16140.1.2.3.4" phases=3 conn=delta model=2 kv=0.38 kw = 0.0 pf=0.92 status=variable vmaxpu=1.5 vminpu=0.93 daily="RES_3_SA" 
New "Load.BT_8626_M2" bus1="UC16140.1.2.3.4" phases=3 conn=delta model=3 kv=0.38 kw = 0.0 pf=0.92 status=variable vmaxpu=1.5 vminpu=0.93 daily="RES_3_SA"
 
New "Load.BT_288_M1" bus1="UC16156.3.4" phases=1 conn=delta model=2 kv=0.22 kw = 0.0 pf=0.92 status=variable vmaxpu=1.5 vminpu=0.93 daily="RES_7_SA" 
New "Load.BT_288_M2" bus1="UC16156.3.4" phases=1 conn=delta model=3 kv=0.22 kw = 0.0 pf=0.92 status=variable vmaxpu=1.5 vminpu=0.93 daily="RES_7_SA"
 
New "Load.BT_715_M1" bus1="UC16132.3.4" phases=1 conn=delta model=2 kv=0.22 kw = 0.0 pf=0.92 status=variable vmaxpu=1.5 vminpu=0.93 daily="COM_5_SA" 
New "Load.BT_715_M2" bus1="UC16132.3.4" phases=1 conn=delta model=3 kv=0.22 kw = 0.0 pf=0.92 status=variable vmaxpu=1.5 vminpu=0.93 daily="COM_5_SA"
 
New "Load.BT_1454_M1" bus1="UC8216.3.4" phases=1 conn=delta model=2 kv=0.22 kw = 0.0 pf=0.92 status=variable vmaxpu=1.5 vminpu=0.93 daily="RES_3_SA" 
New "Load.BT_1454_M2" bus1="UC8216.3.4" phases=1 conn=delta model=3 kv=0.22 kw = 0.0 pf=0.92 status=variable vmaxpu=1.5 vminpu=0.93 daily="RES_3_SA"
 
New "Load.BT_1169_M1" bus1="UC16139.2.4" phases=1 conn=delta model=2 kv=0.22 kw = 0.0 pf=0.92 status=variable vmaxpu=1.5 vminpu=0.93 daily="RES_3_SA" 
New "Load.BT_1169_M2" bus1="UC16139.2.4" phases=1 conn=delta model=3 kv=0.22 kw = 0.0 pf=0.92 status=variable vmaxpu=1.5 vminpu=0.93 daily="RES_3_SA"
 
New "Load.BT_2362_M1" bus1="UC16135.3.4" phases=1 conn=delta model=2 kv=0.22 kw = 0.0 pf=0.92 status=variable vmaxpu=1.5 vminpu=0.93 daily="RES_3_SA" 
New "Load.BT_2362_M2" bus1="UC16135.3.4" phases=1 conn=delta model=3 kv=0.22 kw = 0.0 pf=0.92 status=variable vmaxpu=1.5 vminpu=0.93 daily="RES_3_SA"
 
New "Load.BT_7328_M1" bus1="UC16138.3.4" phases=1 conn=delta model=2 kv=0.22 kw = 0.0 pf=0.92 status=variable vmaxpu=1.5 vminpu=0.93 daily="COM_5_SA" 
New "Load.BT_7328_M2" bus1="UC16138.3.4" phases=1 conn=delta model=3 kv=0.22 kw = 0.0 pf=0.92 status=variable vmaxpu=1.5 vminpu=0.93 daily="COM_5_SA"
 
New "Load.BT_1673_M1" bus1="UC8555.3.4" phases=1 conn=delta model=2 kv=0.22 kw = 0.0 pf=0.92 status=variable vmaxpu=1.5 vminpu=0.93 daily="RES_3_SA" 
New "Load.BT_1673_M2" bus1="UC8555.3.4" phases=1 conn=delta model=3 kv=0.22 kw = 0.0 pf=0.92 status=variable vmaxpu=1.5 vminpu=0.93 daily="RES_3_SA"
 
New "Load.BT_1124_M1" bus1="UC15362.2.3.4" phases=2 conn=delta model=2 kv=0.38 kw = 0.0 pf=0.92 status=variable vmaxpu=1.5 vminpu=0.93 daily="RES_7_SA" 
New "Load.BT_1124_M2" bus1="UC15362.2.3.4" phases=2 conn=delta model=3 kv=0.38 kw = 0.0 pf=0.92 status=variable vmaxpu=1.5 vminpu=0.93 daily="RES_7_SA"
 
New "Load.BT_84_M1" bus1="UC5102.1.4" phases=1 conn=delta model=2 kv=0.22 kw = 0.0 pf=0.92 status=variable vmaxpu=1.5 vminpu=0.93 daily="RES_3_SA" 
New "Load.BT_84_M2" bus1="UC5102.1.4" phases=1 conn=delta model=3 kv=0.22 kw = 0.0 pf=0.92 status=variable vmaxpu=1.5 vminpu=0.93 daily="RES_3_SA"
 
New "Load.BT_1414_M1" bus1="UC7753.1.4" phases=1 conn=delta model=2 kv=0.22 kw = 0.0 pf=0.92 status=variable vmaxpu=1.5 vminpu=0.93 daily="COM_5_SA" 
New "Load.BT_1414_M2" bus1="UC7753.1.4" phases=1 conn=delta model=3 kv=0.22 kw = 0.0 pf=0.92 status=variable vmaxpu=1.5 vminpu=0.93 daily="COM_5_SA"
 
New "Load.BT_6437_M1" bus1="UC12439.3.4" phases=1 conn=delta model=2 kv=0.22 kw = 205.8336423557744 pf=0.92 status=variable vmaxpu=1.5 vminpu=0.93 daily="RES_3_SA" 
New "Load.BT_6437_M2" bus1="UC12439.3.4" phases=1 conn=delta model=3 kv=0.22 kw = 205.8336423557744 pf=0.92 status=variable vmaxpu=1.5 vminpu=0.93 daily="RES_3_SA"
 
New "Load.BT_2368_M1" bus1="UC9732.1.4" phases=1 conn=delta model=2 kv=0.22 kw = 59.833395468426815 pf=0.92 status=variable vmaxpu=1.5 vminpu=0.93 daily="RES_2_SA" 
New "Load.BT_2368_M2" bus1="UC9732.1.4" phases=1 conn=delta model=3 kv=0.22 kw = 59.833395468426815 pf=0.92 status=variable vmaxpu=1.5 vminpu=0.93 daily="RES_2_SA"
 
New "Load.BT_491_M1" bus1="UC1855.1.4" phases=1 conn=delta model=2 kv=0.22 kw = 708.0285130430507 pf=0.92 status=variable vmaxpu=1.5 vminpu=0.93 daily="RES_2_SA" 
New "Load.BT_491_M2" bus1="UC1855.1.4" phases=1 conn=delta model=3 kv=0.22 kw = 708.0285130430507 pf=0.92 status=variable vmaxpu=1.5 vminpu=0.93 daily="RES_2_SA"
 
New "Load.BT_1491_M1" bus1="UC1136.2.4" phases=1 conn=delta model=2 kv=0.22 kw = 426.16612846072275 pf=0.92 status=variable vmaxpu=1.5 vminpu=0.93 daily="RES_7_SA" 
New "Load.BT_1491_M2" bus1="UC1136.2.4" phases=1 conn=delta model=3 kv=0.22 kw = 426.16612846072275 pf=0.92 status=variable vmaxpu=1.5 vminpu=0.93 daily="RES_7_SA"
 
New "Load.BT_2368_M1" bus1="UC9732.2.4" phases=1 conn=delta model=2 kv=0.22 kw = 205.68628418574804 pf=0.92 status=variable vmaxpu=1.5 vminpu=0.93 daily="RES_9_SA" 
New "Load.BT_2368_M2" bus1="UC9732.2.4" phases=1 conn=delta model=3 kv=0.22 kw = 205.68628418574804 pf=0.92 status=variable vmaxpu=1.5 vminpu=0.93 daily="RES_9_SA"
 
New "Load.BT_8141_M1" bus1="UC15851.3.4" phases=1 conn=delta model=2 kv=0.22 kw = 393.74044477349383 pf=0.92 status=variable vmaxpu=1.5 vminpu=0.93 daily="RES_7_SA" 
New "Load.BT_8141_M2" bus1="UC15851.3.4" phases=1 conn=delta model=3 kv=0.22 kw = 393.74044477349383 pf=0.92 status=variable vmaxpu=1.5 vminpu=0.93 daily="RES_7_SA"
 
New "Load.BT_7354_M1" bus1="UC15850.3.1.4" phases=2 conn=delta model=2 kv=0.38 kw = 73.57649475135621 pf=0.92 status=variable vmaxpu=1.5 vminpu=0.93 daily="RES_1_SA" 
New "Load.BT_7354_M2" bus1="UC15850.3.1.4" phases=2 conn=delta model=3 kv=0.38 kw = 73.57649475135621 pf=0.92 status=variable vmaxpu=1.5 vminpu=0.93 daily="RES_1_SA"
 
New "Load.BT_918_M1" bus1="UC15688.1.4" phases=1 conn=delta model=2 kv=0.22 kw = 11.22728958304224 pf=0.92 status=variable vmaxpu=1.5 vminpu=0.93 daily="RES_3_SA" 
New "Load.BT_918_M2" bus1="UC15688.1.4" phases=1 conn=delta model=3 kv=0.22 kw = 11.22728958304224 pf=0.92 status=variable vmaxpu=1.5 vminpu=0.93 daily="RES_3_SA"
 
New "Load.BT_2932_M1" bus1="UC10153.2.4" phases=1 conn=delta model=2 kv=0.22 kw = 86.07588680332384 pf=0.92 status=variable vmaxpu=1.5 vminpu=0.93 daily="RES_3_SA" 
New "Load.BT_2932_M2" bus1="UC10153.2.4" phases=1 conn=delta model=3 kv=0.22 kw = 86.07588680332384 pf=0.92 status=variable vmaxpu=1.5 vminpu=0.93 daily="RES_3_SA"
 
New "Load.BT_6949_M1" bus1="UC15497.1.4" phases=1 conn=delta model=2 kv=0.22 kw = 860.9360792401415 pf=0.92 status=variable vmaxpu=1.5 vminpu=0.93 daily="RES_2_SA" 
New "Load.BT_6949_M2" bus1="UC15497.1.4" phases=1 conn=delta model=3 kv=0.22 kw = 860.9360792401415 pf=0.92 status=variable vmaxpu=1.5 vminpu=0.93 daily="RES_2_SA"
 
New "Load.BT_6949_M1" bus1="UC15497.3.4" phases=1 conn=delta model=2 kv=0.22 kw = 63.15747299445053 pf=0.92 status=variable vmaxpu=1.5 vminpu=0.93 daily="RES_2_SA" 
New "Load.BT_6949_M2" bus1="UC15497.3.4" phases=1 conn=delta model=3 kv=0.22 kw = 63.15747299445053 pf=0.92 status=variable vmaxpu=1.5 vminpu=0.93 daily="RES_2_SA"
 
New "Load.BT_1531_M1" bus1="UC5544.2.4" phases=1 conn=delta model=2 kv=0.22 kw = 983.9269477030188 pf=0.92 status=variable vmaxpu=1.5 vminpu=0.93 daily="RES_2_SA" 
New "Load.BT_1531_M2" bus1="UC5544.2.4" phases=1 conn=delta model=3 kv=0.22 kw = 983.9269477030188 pf=0.92 status=variable vmaxpu=1.5 vminpu=0.93 daily="RES_2_SA"
 
New "Load.BT_293_M1" bus1="UC15499.3.4" phases=1 conn=delta model=2 kv=0.22 kw = 352.35221775851346 pf=0.92 status=variable vmaxpu=1.5 vminpu=0.93 daily="RES_2_SA" 
New "Load.BT_293_M2" bus1="UC15499.3.4" phases=1 conn=delta model=3 kv=0.22 kw = 352.35221775851346 pf=0.92 status=variable vmaxpu=1.5 vminpu=0.93 daily="RES_2_SA"
 
New "Load.BT_1432_M1" bus1="UC8603.1.2.3.4" phases=3 conn=delta model=2 kv=0.38 kw = 1396.1034503851256 pf=0.92 status=variable vmaxpu=1.5 vminpu=0.93 daily="COM_1_SA" 
New "Load.BT_1432_M2" bus1="UC8603.1.2.3.4" phases=3 conn=delta model=3 kv=0.38 kw = 1396.1034503851256 pf=0.92 status=variable vmaxpu=1.5 vminpu=0.93 daily="COM_1_SA"
 
New "Load.BT_8049_M1" bus1="UC15509.1.2.4" phases=2 conn=delta model=2 kv=0.38 kw = 33.24077526023712 pf=0.92 status=variable vmaxpu=1.5 vminpu=0.93 daily="RES_2_SA" 
New "Load.BT_8049_M2" bus1="UC15509.1.2.4" phases=2 conn=delta model=3 kv=0.38 kw = 33.24077526023712 pf=0.92 status=variable vmaxpu=1.5 vminpu=0.93 daily="RES_2_SA"
 
New "Load.BT_2623_M1" bus1="UC15510.1.2.3.4" phases=3 conn=delta model=2 kv=0.38 kw = 794.4493443858214 pf=0.92 status=variable vmaxpu=1.5 vminpu=0.93 daily="COM_1_SA" 
New "Load.BT_2623_M2" bus1="UC15510.1.2.3.4" phases=3 conn=delta model=3 kv=0.38 kw = 794.4493443858214 pf=0.92 status=variable vmaxpu=1.5 vminpu=0.93 daily="COM_1_SA"
 
New "Load.BT_3013_M1" bus1="UC6671.1.4" phases=1 conn=delta model=2 kv=0.22 kw = 169.52795382720933 pf=0.92 status=variable vmaxpu=1.5 vminpu=0.93 daily="RES_2_SA" 
New "Load.BT_3013_M2" bus1="UC6671.1.4" phases=1 conn=delta model=3 kv=0.22 kw = 169.52795382720933 pf=0.92 status=variable vmaxpu=1.5 vminpu=0.93 daily="RES_2_SA"
 
New "Load.BT_6930_M1" bus1="UC9626.3.4" phases=1 conn=delta model=2 kv=0.22 kw = 561.7691018980073 pf=0.92 status=variable vmaxpu=1.5 vminpu=0.93 daily="RES_2_SA" 
New "Load.BT_6930_M2" bus1="UC9626.3.4" phases=1 conn=delta model=3 kv=0.22 kw = 561.7691018980073 pf=0.92 status=variable vmaxpu=1.5 vminpu=0.93 daily="RES_2_SA"
 
New "Load.BT_2941_M1" bus1="UC13002.3.4" phases=1 conn=delta model=2 kv=0.22 kw = 49.86083751375448 pf=0.92 status=variable vmaxpu=1.5 vminpu=0.93 daily="COM_1_SA" 
New "Load.BT_2941_M2" bus1="UC13002.3.4" phases=1 conn=delta model=3 kv=0.22 kw = 49.86083751375448 pf=0.92 status=variable vmaxpu=1.5 vminpu=0.93 daily="COM_1_SA"
 
New "Load.BT_7308_M1" bus1="UC13331.1.4" phases=1 conn=delta model=2 kv=0.22 kw = 16.62038763011856 pf=0.92 status=variable vmaxpu=1.5 vminpu=0.93 daily="RES_2_SA" 
New "Load.BT_7308_M2" bus1="UC13331.1.4" phases=1 conn=delta model=3 kv=0.22 kw = 16.62038763011856 pf=0.92 status=variable vmaxpu=1.5 vminpu=0.93 daily="RES_2_SA"
 
New "Load.BT_3010_M1" bus1="UC14890.1.2.3.4" phases=3 conn=delta model=2 kv=0.38 kw = 282.54658971201553 pf=0.92 status=variable vmaxpu=1.5 vminpu=0.93 daily="RES_2_SA" 
New "Load.BT_3010_M2" bus1="UC14890.1.2.3.4" phases=3 conn=delta model=3 kv=0.38 kw = 282.54658971201553 pf=0.92 status=variable vmaxpu=1.5 vminpu=0.93 daily="RES_2_SA"
 
New "Load.BT_3010_M1" bus1="UC14890.1.2.3.4" phases=3 conn=delta model=2 kv=0.38 kw = 405.5374581748929 pf=0.92 status=variable vmaxpu=1.5 vminpu=0.93 daily="RES_2_SA" 
New "Load.BT_3010_M2" bus1="UC14890.1.2.3.4" phases=3 conn=delta model=3 kv=0.38 kw = 405.5374581748929 pf=0.92 status=variable vmaxpu=1.5 vminpu=0.93 daily="RES_2_SA"
 
New "Load.BT_1267_M1" bus1="UC15137.1.2.3.4" phases=3 conn=delta model=2 kv=0.38 kw = 4499.10957165778 pf=0.92 status=variable vmaxpu=1.5 vminpu=0.93 daily="IND_1_SA" 
New "Load.BT_1267_M2" bus1="UC15137.1.2.3.4" phases=3 conn=delta model=3 kv=0.38 kw = 4499.10957165778 pf=0.92 status=variable vmaxpu=1.5 vminpu=0.93 daily="IND_1_SA"
 
New "Load.BT_1115_M1" bus1="UC7113.1.4" phases=1 conn=delta model=2 kv=0.22 kw = 408.86153570091653 pf=0.92 status=variable vmaxpu=1.5 vminpu=0.93 daily="RES_2_SA" 
New "Load.BT_1115_M2" bus1="UC7113.1.4" phases=1 conn=delta model=3 kv=0.22 kw = 408.86153570091653 pf=0.92 status=variable vmaxpu=1.5 vminpu=0.93 daily="RES_2_SA"
 
New "Load.BT_7226_M1" bus1="UC9718.1.4" phases=1 conn=delta model=2 kv=0.22 kw = 109.6945583587825 pf=0.92 status=variable vmaxpu=1.5 vminpu=0.93 daily="RES_2_SA" 
New "Load.BT_7226_M2" bus1="UC9718.1.4" phases=1 conn=delta model=3 kv=0.22 kw = 109.6945583587825 pf=0.92 status=variable vmaxpu=1.5 vminpu=0.93 daily="RES_2_SA"
 
New "Load.BT_7764_M1" bus1="UC10594.3.1.4" phases=2 conn=delta model=2 kv=0.38 kw = 212.71139971595971 pf=0.92 status=variable vmaxpu=1.5 vminpu=0.93 daily="RES_11_SA" 
New "Load.BT_7764_M2" bus1="UC10594.3.1.4" phases=2 conn=delta model=3 kv=0.38 kw = 212.71139971595971 pf=0.92 status=variable vmaxpu=1.5 vminpu=0.93 daily="RES_11_SA"
 
New "Load.BT_1983_M1" bus1="UC15149.1.2.4" phases=2 conn=delta model=2 kv=0.38 kw = 472.0190086953671 pf=0.92 status=variable vmaxpu=1.5 vminpu=0.93 daily="RES_2_SA" 
New "Load.BT_1983_M2" bus1="UC15149.1.2.4" phases=2 conn=delta model=3 kv=0.38 kw = 472.0190086953671 pf=0.92 status=variable vmaxpu=1.5 vminpu=0.93 daily="RES_2_SA"
 
New "Load.BT_6423_M1" bus1="UC13667.1.2.3.4" phases=3 conn=delta model=2 kv=0.38 kw = 745.7907248062648 pf=0.92 status=variable vmaxpu=1.5 vminpu=0.93 daily="RES_7_SA" 
New "Load.BT_6423_M2" bus1="UC13667.1.2.3.4" phases=3 conn=delta model=3 kv=0.38 kw = 745.7907248062648 pf=0.92 status=variable vmaxpu=1.5 vminpu=0.93 daily="RES_7_SA"
 
New "Load.BT_6614_M1" bus1="UC15154.3.4" phases=1 conn=delta model=2 kv=0.22 kw = 1065.1073525910615 pf=0.92 status=variable vmaxpu=1.5 vminpu=0.93 daily="RES_1_SA" 
New "Load.BT_6614_M2" bus1="UC15154.3.4" phases=1 conn=delta model=3 kv=0.22 kw = 1065.1073525910615 pf=0.92 status=variable vmaxpu=1.5 vminpu=0.93 daily="RES_1_SA"
 
New "Load.BT_8374_M1" bus1="UC15150.1.2.3.4" phases=3 conn=delta model=2 kv=0.38 kw = 757.8896759334064 pf=0.92 status=variable vmaxpu=1.5 vminpu=0.93 daily="RES_2_SA" 
New "Load.BT_8374_M2" bus1="UC15150.1.2.3.4" phases=3 conn=delta model=3 kv=0.38 kw = 757.8896759334064 pf=0.92 status=variable vmaxpu=1.5 vminpu=0.93 daily="RES_2_SA"
 
New "Load.BT_3034_M1" bus1="UC14783.1.2.3.4" phases=3 conn=delta model=2 kv=0.38 kw = 518.556094059699 pf=0.92 status=variable vmaxpu=1.5 vminpu=0.93 daily="RES_2_SA" 
New "Load.BT_3034_M2" bus1="UC14783.1.2.3.4" phases=3 conn=delta model=3 kv=0.38 kw = 518.556094059699 pf=0.92 status=variable vmaxpu=1.5 vminpu=0.93 daily="RES_2_SA"
 
New "Load.BT_1488_M1" bus1="UC10551.2.4" phases=1 conn=delta model=2 kv=0.22 kw = 640.4462795795744 pf=0.92 status=variable vmaxpu=1.5 vminpu=0.93 daily="RES_11_SA" 
New "Load.BT_1488_M2" bus1="UC10551.2.4" phases=1 conn=delta model=3 kv=0.22 kw = 640.4462795795744 pf=0.92 status=variable vmaxpu=1.5 vminpu=0.93 daily="RES_11_SA"
 
New "Load.BT_927_M1" bus1="UC15130.3.4" phases=1 conn=delta model=2 kv=0.22 kw = 29.91650250825269 pf=0.92 status=variable vmaxpu=1.5 vminpu=0.93 daily="COM_1_SA" 
New "Load.BT_927_M2" bus1="UC15130.3.4" phases=1 conn=delta model=3 kv=0.22 kw = 29.91650250825269 pf=0.92 status=variable vmaxpu=1.5 vminpu=0.93 daily="COM_1_SA"
 
New "Load.BT_15_M1" bus1="UC11345.3.4" phases=1 conn=delta model=2 kv=0.22 kw = 568.3950248719209 pf=0.92 status=variable vmaxpu=1.5 vminpu=0.93 daily="RES_8_SA" 
New "Load.BT_15_M2" bus1="UC11345.3.4" phases=1 conn=delta model=3 kv=0.22 kw = 568.3950248719209 pf=0.92 status=variable vmaxpu=1.5 vminpu=0.93 daily="RES_8_SA"
 
New "Load.BT_6637_M1" bus1="UC1871.2.4" phases=1 conn=delta model=2 kv=0.22 kw = 787.1836830200193 pf=0.92 status=variable vmaxpu=1.5 vminpu=0.93 daily="RES_13_SA" 
New "Load.BT_6637_M2" bus1="UC1871.2.4" phases=1 conn=delta model=3 kv=0.22 kw = 787.1836830200193 pf=0.92 status=variable vmaxpu=1.5 vminpu=0.93 daily="RES_13_SA"
 
New "Load.BT_387_M1" bus1="UC15581.1.2.3.4" phases=3 conn=delta model=2 kv=0.38 kw = 0.0 pf=0.92 status=variable vmaxpu=1.5 vminpu=0.93 daily="RES_3_SA" 
New "Load.BT_387_M2" bus1="UC15581.1.2.3.4" phases=3 conn=delta model=3 kv=0.38 kw = 0.0 pf=0.92 status=variable vmaxpu=1.5 vminpu=0.93 daily="RES_3_SA"
 
New "Load.BT_8263_M1" bus1="UC14653.1.2.3.4" phases=3 conn=delta model=2 kv=0.38 kw = 0.0 pf=0.92 status=variable vmaxpu=1.5 vminpu=0.93 daily="RES_3_SA" 
New "Load.BT_8263_M2" bus1="UC14653.1.2.3.4" phases=3 conn=delta model=3 kv=0.38 kw = 0.0 pf=0.92 status=variable vmaxpu=1.5 vminpu=0.93 daily="RES_3_SA"
 
New "Load.BT_1454_M1" bus1="UC8216.3.4" phases=1 conn=delta model=2 kv=0.22 kw = 0.0 pf=0.92 status=variable vmaxpu=1.5 vminpu=0.93 daily="RES_3_SA" 
New "Load.BT_1454_M2" bus1="UC8216.3.4" phases=1 conn=delta model=3 kv=0.22 kw = 0.0 pf=0.92 status=variable vmaxpu=1.5 vminpu=0.93 daily="RES_3_SA"
 
New "Load.BT_1314_M1" bus1="UC16125.1.2.3.4" phases=3 conn=delta model=2 kv=0.38 kw = 0.0 pf=0.92 status=variable vmaxpu=1.5 vminpu=0.93 daily="RES_7_SA" 
New "Load.BT_1314_M2" bus1="UC16125.1.2.3.4" phases=3 conn=delta model=3 kv=0.38 kw = 0.0 pf=0.92 status=variable vmaxpu=1.5 vminpu=0.93 daily="RES_7_SA"
 
New "Load.BT_8044_M1" bus1="UC16120.1.2.3.4" phases=3 conn=delta model=2 kv=0.38 kw = 0.0 pf=0.92 status=variable vmaxpu=1.5 vminpu=0.93 daily="RES_3_SA" 
New "Load.BT_8044_M2" bus1="UC16120.1.2.3.4" phases=3 conn=delta model=3 kv=0.38 kw = 0.0 pf=0.92 status=variable vmaxpu=1.5 vminpu=0.93 daily="RES_3_SA"
 
New "Load.BT_6919_M1" bus1="UC16117.1.4" phases=1 conn=delta model=2 kv=0.22 kw = 0.0 pf=0.92 status=variable vmaxpu=1.5 vminpu=0.93 daily="RES_3_SA" 
New "Load.BT_6919_M2" bus1="UC16117.1.4" phases=1 conn=delta model=3 kv=0.22 kw = 0.0 pf=0.92 status=variable vmaxpu=1.5 vminpu=0.93 daily="RES_3_SA"
 
New "Load.BT_1445_M1" bus1="UC2901.2.4" phases=1 conn=delta model=2 kv=0.22 kw = 0.0 pf=0.92 status=variable vmaxpu=1.5 vminpu=0.93 daily="RES_3_SA" 
New "Load.BT_1445_M2" bus1="UC2901.2.4" phases=1 conn=delta model=3 kv=0.22 kw = 0.0 pf=0.92 status=variable vmaxpu=1.5 vminpu=0.93 daily="RES_3_SA"
 
New "Load.BT_3107_M1" bus1="UC8431.2.4" phases=1 conn=delta model=2 kv=0.22 kw = 0.0 pf=0.92 status=variable vmaxpu=1.5 vminpu=0.93 daily="RES_3_SA" 
New "Load.BT_3107_M2" bus1="UC8431.2.4" phases=1 conn=delta model=3 kv=0.22 kw = 0.0 pf=0.92 status=variable vmaxpu=1.5 vminpu=0.93 daily="RES_3_SA"
 
New "Load.BT_8422_M1" bus1="UC16128.1.4" phases=1 conn=delta model=2 kv=0.22 kw = 0.0 pf=0.92 status=variable vmaxpu=1.5 vminpu=0.93 daily="RES_7_SA" 
New "Load.BT_8422_M2" bus1="UC16128.1.4" phases=1 conn=delta model=3 kv=0.22 kw = 0.0 pf=0.92 status=variable vmaxpu=1.5 vminpu=0.93 daily="RES_7_SA"
 
New "Load.BT_8514_M1" bus1="UC15685.1.2.3.4" phases=3 conn=delta model=2 kv=0.38 kw = 245.9801317345221 pf=0.92 status=variable vmaxpu=1.5 vminpu=0.93 daily="COM_1_SA" 
New "Load.BT_8514_M2" bus1="UC15685.1.2.3.4" phases=3 conn=delta model=3 kv=0.38 kw = 245.9801317345221 pf=0.92 status=variable vmaxpu=1.5 vminpu=0.93 daily="COM_1_SA"
 
New "Load.BT_2932_M1" bus1="UC10153.2.4" phases=1 conn=delta model=2 kv=0.22 kw = 558.4450243719837 pf=0.92 status=variable vmaxpu=1.5 vminpu=0.93 daily="RES_2_SA" 
New "Load.BT_2932_M2" bus1="UC10153.2.4" phases=1 conn=delta model=3 kv=0.22 kw = 558.4450243719837 pf=0.92 status=variable vmaxpu=1.5 vminpu=0.93 daily="RES_2_SA"
 
New "Load.BT_7928_M1" bus1="UC15838.2.4" phases=1 conn=delta model=2 kv=0.22 kw = 6.648155052047424 pf=0.92 status=variable vmaxpu=1.5 vminpu=0.93 daily="RES_2_SA" 
New "Load.BT_7928_M2" bus1="UC15838.2.4" phases=1 conn=delta model=3 kv=0.22 kw = 6.648155052047424 pf=0.92 status=variable vmaxpu=1.5 vminpu=0.93 daily="RES_2_SA"
 
New "Load.BT_7378_M1" bus1="UC15839.2.3.4" phases=2 conn=delta model=2 kv=0.38 kw = 0.0 pf=0.92 status=variable vmaxpu=1.5 vminpu=0.93 daily="RES_9_SA" 
New "Load.BT_7378_M2" bus1="UC15839.2.3.4" phases=2 conn=delta model=3 kv=0.38 kw = 0.0 pf=0.92 status=variable vmaxpu=1.5 vminpu=0.93 daily="RES_9_SA"
 
New "Load.BT_2395_M1" bus1="UC14029.1.4" phases=1 conn=delta model=2 kv=0.22 kw = 262.6021245558733 pf=0.92 status=variable vmaxpu=1.5 vminpu=0.93 daily="RES_2_SA" 
New "Load.BT_2395_M2" bus1="UC14029.1.4" phases=1 conn=delta model=3 kv=0.22 kw = 262.6021245558733 pf=0.92 status=variable vmaxpu=1.5 vminpu=0.93 daily="RES_2_SA"
 
New "Load.BT_8159_M1" bus1="UC15841.2.4" phases=1 conn=delta model=2 kv=0.22 kw = 7.426972371980674 pf=0.92 status=variable vmaxpu=1.5 vminpu=0.93 daily="RES_4_SA" 
New "Load.BT_8159_M2" bus1="UC15841.2.4" phases=1 conn=delta model=3 kv=0.22 kw = 7.426972371980674 pf=0.92 status=variable vmaxpu=1.5 vminpu=0.93 daily="RES_4_SA"
 
New "Load.BT_1678_M1" bus1="UC358.3.1.4" phases=2 conn=delta model=2 kv=0.38 kw = 744.5885068720669 pf=0.92 status=variable vmaxpu=1.5 vminpu=0.93 daily="COM_1_SA" 
New "Load.BT_1678_M2" bus1="UC358.3.1.4" phases=2 conn=delta model=3 kv=0.38 kw = 744.5885068720669 pf=0.92 status=variable vmaxpu=1.5 vminpu=0.93 daily="COM_1_SA"
 
New "Load.BT_474_M1" bus1="UC6892.2.4" phases=1 conn=delta model=2 kv=0.22 kw = 206.09280661347015 pf=0.92 status=variable vmaxpu=1.5 vminpu=0.93 daily="RES_2_SA" 
New "Load.BT_474_M2" bus1="UC6892.2.4" phases=1 conn=delta model=3 kv=0.22 kw = 206.09280661347015 pf=0.92 status=variable vmaxpu=1.5 vminpu=0.93 daily="RES_2_SA"
 
New "Load.BT_3034_M1" bus1="UC14783.1.2.3.4" phases=3 conn=delta model=2 kv=0.38 kw = 159.55572124913817 pf=0.92 status=variable vmaxpu=1.5 vminpu=0.93 daily="RES_2_SA" 
New "Load.BT_3034_M2" bus1="UC14783.1.2.3.4" phases=3 conn=delta model=3 kv=0.38 kw = 159.55572124913817 pf=0.92 status=variable vmaxpu=1.5 vminpu=0.93 daily="RES_2_SA"
 
New "Load.BT_7427_M1" bus1="UC15490.2.4" phases=1 conn=delta model=2 kv=0.22 kw = 551.7968693199361 pf=0.92 status=variable vmaxpu=1.5 vminpu=0.93 daily="RES_2_SA" 
New "Load.BT_7427_M2" bus1="UC15490.2.4" phases=1 conn=delta model=3 kv=0.22 kw = 551.7968693199361 pf=0.92 status=variable vmaxpu=1.5 vminpu=0.93 daily="RES_2_SA"
 
New "Load.BT_6397_M1" bus1="UC15492.1.2.3.4" phases=3 conn=delta model=2 kv=0.38 kw = 86.42601567661652 pf=0.92 status=variable vmaxpu=1.5 vminpu=0.93 daily="RES_2_SA" 
New "Load.BT_6397_M2" bus1="UC15492.1.2.3.4" phases=3 conn=delta model=3 kv=0.38 kw = 86.42601567661652 pf=0.92 status=variable vmaxpu=1.5 vminpu=0.93 daily="RES_2_SA"
 
New "Load.BT_855_M1" bus1="UC15495.1.2.3.4" phases=3 conn=delta model=2 kv=0.38 kw = 244.31810381739695 pf=0.92 status=variable vmaxpu=1.5 vminpu=0.93 daily="COM_1_SA" 
New "Load.BT_855_M2" bus1="UC15495.1.2.3.4" phases=3 conn=delta model=3 kv=0.38 kw = 244.31810381739695 pf=0.92 status=variable vmaxpu=1.5 vminpu=0.93 daily="COM_1_SA"
 
New "Load.BT_937_M1" bus1="UC15493.2.4" phases=1 conn=delta model=2 kv=0.22 kw = 355.6762952845372 pf=0.92 status=variable vmaxpu=1.5 vminpu=0.93 daily="RES_2_SA" 
New "Load.BT_937_M2" bus1="UC15493.2.4" phases=1 conn=delta model=3 kv=0.22 kw = 355.6762952845372 pf=0.92 status=variable vmaxpu=1.5 vminpu=0.93 daily="RES_2_SA"
 
New "Load.BT_7261_M1" bus1="UC15496.3.4" phases=1 conn=delta model=2 kv=0.38 kw = 16.62038763011856 pf=0.92 status=variable vmaxpu=1.5 vminpu=0.93 daily="RES_2_SA" 
New "Load.BT_7261_M2" bus1="UC15496.3.4" phases=1 conn=delta model=3 kv=0.38 kw = 16.62038763011856 pf=0.92 status=variable vmaxpu=1.5 vminpu=0.93 daily="RES_2_SA"
 
New "Load.BT_358_M1" bus1="UC14400.1.4" phases=1 conn=delta model=2 kv=0.22 kw = 242.65765939973096 pf=0.92 status=variable vmaxpu=1.5 vminpu=0.93 daily="RES_2_SA" 
New "Load.BT_358_M2" bus1="UC14400.1.4" phases=1 conn=delta model=3 kv=0.22 kw = 242.65765939973096 pf=0.92 status=variable vmaxpu=1.5 vminpu=0.93 daily="RES_2_SA"
 
New "Load.BT_490_M1" bus1="UC6077.1.4" phases=1 conn=delta model=2 kv=0.22 kw = 315.78736497225265 pf=0.92 status=variable vmaxpu=1.5 vminpu=0.93 daily="RES_2_SA" 
New "Load.BT_490_M2" bus1="UC6077.1.4" phases=1 conn=delta model=3 kv=0.22 kw = 315.78736497225265 pf=0.92 status=variable vmaxpu=1.5 vminpu=0.93 daily="RES_2_SA"
 
New "Load.BT_1862_M1" bus1="UC7595.2.3.4" phases=2 conn=delta model=2 kv=0.38 kw = 1227.5437395879512 pf=0.92 status=variable vmaxpu=1.5 vminpu=0.93 daily="RES_7_SA" 
New "Load.BT_1862_M2" bus1="UC7595.2.3.4" phases=2 conn=delta model=3 kv=0.38 kw = 1227.5437395879512 pf=0.92 status=variable vmaxpu=1.5 vminpu=0.93 daily="RES_7_SA"
 
New "Load.BT_1488_M1" bus1="UC10551.3.4" phases=1 conn=delta model=2 kv=0.22 kw = 293.6342148252922 pf=0.92 status=variable vmaxpu=1.5 vminpu=0.93 daily="RES_11_SA" 
New "Load.BT_1488_M2" bus1="UC10551.3.4" phases=1 conn=delta model=3 kv=0.22 kw = 293.6342148252922 pf=0.92 status=variable vmaxpu=1.5 vminpu=0.93 daily="RES_11_SA"
 
New "Load.BT_2624_M1" bus1="UC8865.3.4" phases=1 conn=delta model=2 kv=0.22 kw = 1597.63387883866 pf=0.92 status=variable vmaxpu=1.5 vminpu=0.93 daily="RES_13_SA" 
New "Load.BT_2624_M2" bus1="UC8865.3.4" phases=1 conn=delta model=3 kv=0.22 kw = 1597.63387883866 pf=0.92 status=variable vmaxpu=1.5 vminpu=0.93 daily="RES_13_SA"
 
New "Load.BT_1840_M1" bus1="UC5847.2.4" phases=1 conn=delta model=2 kv=0.22 kw = 432.1300783830826 pf=0.92 status=variable vmaxpu=1.5 vminpu=0.93 daily="RES_2_SA" 
New "Load.BT_1840_M2" bus1="UC5847.2.4" phases=1 conn=delta model=3 kv=0.22 kw = 432.1300783830826 pf=0.92 status=variable vmaxpu=1.5 vminpu=0.93 daily="RES_2_SA"
 
New "Load.BT_1452_M1" bus1="UC8287.2.4" phases=1 conn=delta model=2 kv=0.22 kw = 840.9861260653256 pf=0.92 status=variable vmaxpu=1.5 vminpu=0.93 daily="COM_1_SA" 
New "Load.BT_1452_M2" bus1="UC8287.2.4" phases=1 conn=delta model=3 kv=0.22 kw = 840.9861260653256 pf=0.92 status=variable vmaxpu=1.5 vminpu=0.93 daily="COM_1_SA"
 
New "Load.BT_3034_M1" bus1="UC14783.1.2.3.4" phases=3 conn=delta model=2 kv=0.38 kw = 368.9726053886321 pf=0.92 status=variable vmaxpu=1.5 vminpu=0.93 daily="RES_2_SA" 
New "Load.BT_3034_M2" bus1="UC14783.1.2.3.4" phases=3 conn=delta model=3 kv=0.38 kw = 368.9726053886321 pf=0.92 status=variable vmaxpu=1.5 vminpu=0.93 daily="RES_2_SA"
 
New "Load.BT_929_M1" bus1="UC8105.2.4" phases=1 conn=delta model=2 kv=0.22 kw = 116.34195419876048 pf=0.92 status=variable vmaxpu=1.5 vminpu=0.93 daily="COM_1_SA" 
New "Load.BT_929_M2" bus1="UC8105.2.4" phases=1 conn=delta model=3 kv=0.22 kw = 116.34195419876048 pf=0.92 status=variable vmaxpu=1.5 vminpu=0.93 daily="COM_1_SA"
 
New "Load.BT_3034_M1" bus1="UC14783.1.2.3.4" phases=3 conn=delta model=2 kv=0.38 kw = 1195.7425518888883 pf=0.92 status=variable vmaxpu=1.5 vminpu=0.93 daily="RES_4_SA" 
New "Load.BT_3034_M2" bus1="UC14783.1.2.3.4" phases=3 conn=delta model=3 kv=0.38 kw = 1195.7425518888883 pf=0.92 status=variable vmaxpu=1.5 vminpu=0.93 daily="RES_4_SA"
 
New "Load.BT_8197_M1" bus1="UC11184.3.4" phases=1 conn=delta model=2 kv=0.22 kw = 275.1375713717305 pf=0.92 status=variable vmaxpu=1.5 vminpu=0.93 daily="RES_11_SA" 
New "Load.BT_8197_M2" bus1="UC11184.3.4" phases=1 conn=delta model=3 kv=0.22 kw = 275.1375713717305 pf=0.92 status=variable vmaxpu=1.5 vminpu=0.93 daily="RES_11_SA"
 
New "Load.BT_3010_M1" bus1="UC14890.1.2.3.4" phases=3 conn=delta model=2 kv=0.38 kw = 347.418039506024 pf=0.92 status=variable vmaxpu=1.5 vminpu=0.93 daily="RES_7_SA" 
New "Load.BT_3010_M2" bus1="UC14890.1.2.3.4" phases=3 conn=delta model=3 kv=0.38 kw = 347.418039506024 pf=0.92 status=variable vmaxpu=1.5 vminpu=0.93 daily="RES_7_SA"
 
New "Load.BT_377_M1" bus1="UC15109.1.4" phases=1 conn=delta model=2 kv=0.22 kw = 627.1520266901315 pf=0.92 status=variable vmaxpu=1.5 vminpu=0.93 daily="RES_1_SA" 
New "Load.BT_377_M2" bus1="UC15109.1.4" phases=1 conn=delta model=3 kv=0.22 kw = 627.1520266901315 pf=0.92 status=variable vmaxpu=1.5 vminpu=0.93 daily="RES_1_SA"
 
New "Load.BT_1750_M1" bus1="UC10549.2.4" phases=1 conn=delta model=2 kv=0.22 kw = 6.648111668500598 pf=0.92 status=variable vmaxpu=1.5 vminpu=0.93 daily="COM_1_SA" 
New "Load.BT_1750_M2" bus1="UC10549.2.4" phases=1 conn=delta model=3 kv=0.22 kw = 6.648111668500598 pf=0.92 status=variable vmaxpu=1.5 vminpu=0.93 daily="COM_1_SA"
 
New "Load.BT_639_M1" bus1="UC15090.3.4" phases=1 conn=delta model=2 kv=0.22 kw = 0.0 pf=0.92 status=variable vmaxpu=1.5 vminpu=0.93 daily="RES_3_SA" 
New "Load.BT_639_M2" bus1="UC15090.3.4" phases=1 conn=delta model=3 kv=0.22 kw = 0.0 pf=0.92 status=variable vmaxpu=1.5 vminpu=0.93 daily="RES_3_SA"
 
New "Load.BT_2214_M1" bus1="UC11074.2.4" phases=1 conn=delta model=2 kv=0.22 kw = 0.0 pf=0.92 status=variable vmaxpu=1.5 vminpu=0.93 daily="RES_3_SA" 
New "Load.BT_2214_M2" bus1="UC11074.2.4" phases=1 conn=delta model=3 kv=0.22 kw = 0.0 pf=0.92 status=variable vmaxpu=1.5 vminpu=0.93 daily="RES_3_SA"
 
New "Load.BT_8198_M1" bus1="UC15673.2.3.4" phases=2 conn=delta model=2 kv=0.38 kw = 0.0 pf=0.92 status=variable vmaxpu=1.5 vminpu=0.93 daily="RES_3_SA" 
New "Load.BT_8198_M2" bus1="UC15673.2.3.4" phases=2 conn=delta model=3 kv=0.38 kw = 0.0 pf=0.92 status=variable vmaxpu=1.5 vminpu=0.93 daily="RES_3_SA"
 
New "Load.BT_6795_M1" bus1="UC14821.3.4" phases=1 conn=delta model=2 kv=0.22 kw = 0.0 pf=0.92 status=variable vmaxpu=1.5 vminpu=0.93 daily="RES_3_SA" 
New "Load.BT_6795_M2" bus1="UC14821.3.4" phases=1 conn=delta model=3 kv=0.22 kw = 0.0 pf=0.92 status=variable vmaxpu=1.5 vminpu=0.93 daily="RES_3_SA"
 
New "Load.BT_768_M1" bus1="UC12804.1.4" phases=1 conn=delta model=2 kv=0.22 kw = 0.0 pf=0.92 status=variable vmaxpu=1.5 vminpu=0.93 daily="RES_3_SA" 
New "Load.BT_768_M2" bus1="UC12804.1.4" phases=1 conn=delta model=3 kv=0.22 kw = 0.0 pf=0.92 status=variable vmaxpu=1.5 vminpu=0.93 daily="RES_3_SA"
 
New "Load.BT_539_M1" bus1="UC11814.2.4" phases=1 conn=delta model=2 kv=0.22 kw = 718.7054183445907 pf=0.92 status=variable vmaxpu=1.5 vminpu=0.93 daily="RES_6_SA" 
New "Load.BT_539_M2" bus1="UC11814.2.4" phases=1 conn=delta model=3 kv=0.22 kw = 718.7054183445907 pf=0.92 status=variable vmaxpu=1.5 vminpu=0.93 daily="RES_6_SA"
 
New "Load.BT_6846_M1" bus1="UC15821.1.2.3.4" phases=3 conn=delta model=2 kv=0.38 kw = 56.5093179424031 pf=0.92 status=variable vmaxpu=1.5 vminpu=0.93 daily="RES_2_SA" 
New "Load.BT_6846_M2" bus1="UC15821.1.2.3.4" phases=3 conn=delta model=3 kv=0.38 kw = 56.5093179424031 pf=0.92 status=variable vmaxpu=1.5 vminpu=0.93 daily="RES_2_SA"
 
New "Load.BT_826_M1" bus1="UC7495.2.4" phases=1 conn=delta model=2 kv=0.22 kw = 603.3161339164293 pf=0.92 status=variable vmaxpu=1.5 vminpu=0.93 daily="COM_1_SA" 
New "Load.BT_826_M2" bus1="UC7495.2.4" phases=1 conn=delta model=3 kv=0.22 kw = 603.3161339164293 pf=0.92 status=variable vmaxpu=1.5 vminpu=0.93 daily="COM_1_SA"
 
New "Load.BT_84_M1" bus1="UC5102.3.4" phases=1 conn=delta model=2 kv=0.22 kw = 770.6600268996214 pf=0.92 status=variable vmaxpu=1.5 vminpu=0.93 daily="RES_6_SA" 
New "Load.BT_84_M2" bus1="UC5102.3.4" phases=1 conn=delta model=3 kv=0.22 kw = 770.6600268996214 pf=0.92 status=variable vmaxpu=1.5 vminpu=0.93 daily="RES_6_SA"
 
New "Load.BT_2347_M1" bus1="UC1753.3.4" phases=1 conn=delta model=2 kv=0.22 kw = 179.50018640528046 pf=0.92 status=variable vmaxpu=1.5 vminpu=0.93 daily="RES_2_SA" 
New "Load.BT_2347_M2" bus1="UC1753.3.4" phases=1 conn=delta model=3 kv=0.22 kw = 179.50018640528046 pf=0.92 status=variable vmaxpu=1.5 vminpu=0.93 daily="RES_2_SA"
 
New "Load.BT_8197_M1" bus1="UC11184.3.4" phases=1 conn=delta model=2 kv=0.22 kw = 101.86368359675141 pf=0.92 status=variable vmaxpu=1.5 vminpu=0.93 daily="RES_9_SA" 
New "Load.BT_8197_M2" bus1="UC11184.3.4" phases=1 conn=delta model=3 kv=0.22 kw = 101.86368359675141 pf=0.92 status=variable vmaxpu=1.5 vminpu=0.93 daily="RES_9_SA"
 
New "Load.BT_2623_M1" bus1="UC15510.1.2.3.4" phases=3 conn=delta model=2 kv=0.38 kw = 11.727137793793087 pf=0.92 status=variable vmaxpu=1.5 vminpu=0.93 daily="COM_12_SA" 
New "Load.BT_2623_M2" bus1="UC15510.1.2.3.4" phases=3 conn=delta model=3 kv=0.38 kw = 11.727137793793087 pf=0.92 status=variable vmaxpu=1.5 vminpu=0.93 daily="COM_12_SA"
 
New "Load.BT_8426_M1" bus1="UC15793.1.2.3.4" phases=3 conn=delta model=2 kv=0.38 kw = 91.41153544188322 pf=0.92 status=variable vmaxpu=1.5 vminpu=0.93 daily="COM_1_SA" 
New "Load.BT_8426_M2" bus1="UC15793.1.2.3.4" phases=3 conn=delta model=3 kv=0.38 kw = 91.41153544188322 pf=0.92 status=variable vmaxpu=1.5 vminpu=0.93 daily="COM_1_SA"
 
New "Load.BT_7702_M1" bus1="UC15796.3.4" phases=1 conn=delta model=2 kv=0.22 kw = 192.7964965093753 pf=0.92 status=variable vmaxpu=1.5 vminpu=0.93 daily="RES_2_SA" 
New "Load.BT_7702_M2" bus1="UC15796.3.4" phases=1 conn=delta model=3 kv=0.22 kw = 192.7964965093753 pf=0.92 status=variable vmaxpu=1.5 vminpu=0.93 daily="RES_2_SA"
 
New "Load.BT_236_M1" bus1="UC15798.1.2.3.4" phases=3 conn=delta model=2 kv=0.38 kw = 0.0 pf=0.92 status=variable vmaxpu=1.5 vminpu=0.93 daily="RES_12_SA" 
New "Load.BT_236_M2" bus1="UC15798.1.2.3.4" phases=3 conn=delta model=3 kv=0.38 kw = 0.0 pf=0.92 status=variable vmaxpu=1.5 vminpu=0.93 daily="RES_12_SA"
 
New "Load.BT_146_M1" bus1="UC10578.1.4" phases=1 conn=delta model=2 kv=0.22 kw = 625.3524711108432 pf=0.92 status=variable vmaxpu=1.5 vminpu=0.93 daily="RES_7_SA" 
New "Load.BT_146_M2" bus1="UC10578.1.4" phases=1 conn=delta model=3 kv=0.22 kw = 625.3524711108432 pf=0.92 status=variable vmaxpu=1.5 vminpu=0.93 daily="RES_7_SA"
 
New "Load.BT_3019_M1" bus1="UC9738.1.4" phases=1 conn=delta model=2 kv=0.22 kw = 17.318202851676887 pf=0.92 status=variable vmaxpu=1.5 vminpu=0.93 daily="RES_6_SA" 
New "Load.BT_3019_M2" bus1="UC9738.1.4" phases=1 conn=delta model=3 kv=0.22 kw = 17.318202851676887 pf=0.92 status=variable vmaxpu=1.5 vminpu=0.93 daily="RES_6_SA"
 
New "Load.BT_2092_M1" bus1="UC6242.2.4" phases=1 conn=delta model=2 kv=0.22 kw = 236.00950434768356 pf=0.92 status=variable vmaxpu=1.5 vminpu=0.93 daily="RES_2_SA" 
New "Load.BT_2092_M2" bus1="UC6242.2.4" phases=1 conn=delta model=3 kv=0.22 kw = 236.00950434768356 pf=0.92 status=variable vmaxpu=1.5 vminpu=0.93 daily="RES_2_SA"
 
New "Load.BT_539_M1" bus1="UC11814.2.4" phases=1 conn=delta model=2 kv=0.22 kw = 170.4257783253341 pf=0.92 status=variable vmaxpu=1.5 vminpu=0.93 daily="RES_9_SA" 
New "Load.BT_539_M2" bus1="UC11814.2.4" phases=1 conn=delta model=3 kv=0.22 kw = 170.4257783253341 pf=0.92 status=variable vmaxpu=1.5 vminpu=0.93 daily="RES_9_SA"
 
New "Load.BT_1424_M1" bus1="UC6619.3.4" phases=1 conn=delta model=2 kv=0.22 kw = 445.4263884871774 pf=0.92 status=variable vmaxpu=1.5 vminpu=0.93 daily="RES_2_SA" 
New "Load.BT_1424_M2" bus1="UC6619.3.4" phases=1 conn=delta model=3 kv=0.22 kw = 445.4263884871774 pf=0.92 status=variable vmaxpu=1.5 vminpu=0.93 daily="RES_2_SA"
 
New "Load.BT_6443_M1" bus1="UC15805.1.4" phases=1 conn=delta model=2 kv=0.22 kw = 6.648155052047424 pf=0.92 status=variable vmaxpu=1.5 vminpu=0.93 daily="RES_2_SA" 
New "Load.BT_6443_M2" bus1="UC15805.1.4" phases=1 conn=delta model=3 kv=0.22 kw = 6.648155052047424 pf=0.92 status=variable vmaxpu=1.5 vminpu=0.93 daily="RES_2_SA"
 
New "Load.BT_8141_M1" bus1="UC15807.1.2.3.4" phases=3 conn=delta model=2 kv=0.38 kw = 18875.65105479032 pf=0.92 status=variable vmaxpu=1.5 vminpu=0.93 daily="COM_1_SA" 
New "Load.BT_8141_M2" bus1="UC15807.1.2.3.4" phases=3 conn=delta model=3 kv=0.38 kw = 18875.65105479032 pf=0.92 status=variable vmaxpu=1.5 vminpu=0.93 daily="COM_1_SA"
 
New "Load.BT_296_M1" bus1="UC14335.2.4" phases=1 conn=delta model=2 kv=0.22 kw = 322.4355200243001 pf=0.92 status=variable vmaxpu=1.5 vminpu=0.93 daily="RES_2_SA" 
New "Load.BT_296_M2" bus1="UC14335.2.4" phases=1 conn=delta model=3 kv=0.22 kw = 322.4355200243001 pf=0.92 status=variable vmaxpu=1.5 vminpu=0.93 daily="RES_2_SA"
 
New "Load.BT_121_M1" bus1="UC12650.2.3.4" phases=2 conn=delta model=2 kv=0.38 kw = 568.7717861970226 pf=0.92 status=variable vmaxpu=1.5 vminpu=0.93 daily="RES_11_SA" 
New "Load.BT_121_M2" bus1="UC12650.2.3.4" phases=2 conn=delta model=3 kv=0.38 kw = 568.7717861970226 pf=0.92 status=variable vmaxpu=1.5 vminpu=0.93 daily="RES_11_SA"
 
New "Load.BT_12_M1" bus1="UC10383.2.4" phases=1 conn=delta model=2 kv=0.22 kw = 405.4958173947604 pf=0.92 status=variable vmaxpu=1.5 vminpu=0.93 daily="RES_9_SA" 
New "Load.BT_12_M2" bus1="UC10383.2.4" phases=1 conn=delta model=3 kv=0.22 kw = 405.4958173947604 pf=0.92 status=variable vmaxpu=1.5 vminpu=0.93 daily="RES_9_SA"
 
New "Load.BT_8263_M1" bus1="UC14653.1.2.3.4" phases=3 conn=delta model=2 kv=0.38 kw = 1183.3715992644416 pf=0.92 status=variable vmaxpu=1.5 vminpu=0.93 daily="RES_2_SA" 
New "Load.BT_8263_M2" bus1="UC14653.1.2.3.4" phases=3 conn=delta model=3 kv=0.38 kw = 1183.3715992644416 pf=0.92 status=variable vmaxpu=1.5 vminpu=0.93 daily="RES_2_SA"
 
New "Load.BT_2343_M1" bus1="UC5977.2.4" phases=1 conn=delta model=2 kv=0.22 kw = 152.90756619709077 pf=0.92 status=variable vmaxpu=1.5 vminpu=0.93 daily="RES_2_SA" 
New "Load.BT_2343_M2" bus1="UC5977.2.4" phases=1 conn=delta model=3 kv=0.22 kw = 152.90756619709077 pf=0.92 status=variable vmaxpu=1.5 vminpu=0.93 daily="RES_2_SA"
 
New "Load.BT_3034_M1" bus1="UC14783.1.2.3.4" phases=3 conn=delta model=2 kv=0.38 kw = 322.4355200243001 pf=0.92 status=variable vmaxpu=1.5 vminpu=0.93 daily="RES_2_SA" 
New "Load.BT_3034_M2" bus1="UC14783.1.2.3.4" phases=3 conn=delta model=3 kv=0.38 kw = 322.4355200243001 pf=0.92 status=variable vmaxpu=1.5 vminpu=0.93 daily="RES_2_SA"
 
New "Load.BT_684_M1" bus1="UC6236.1.2.3.4" phases=3 conn=delta model=2 kv=0.38 kw = 254.29027132014787 pf=0.92 status=variable vmaxpu=1.5 vminpu=0.93 daily="COM_1_SA" 
New "Load.BT_684_M2" bus1="UC6236.1.2.3.4" phases=3 conn=delta model=3 kv=0.38 kw = 254.29027132014787 pf=0.92 status=variable vmaxpu=1.5 vminpu=0.93 daily="COM_1_SA"
 
New "Load.BT_7327_M1" bus1="UC13253.1.2.4" phases=2 conn=delta model=2 kv=0.38 kw = 362.3244503365846 pf=0.92 status=variable vmaxpu=1.5 vminpu=0.93 daily="RES_2_SA" 
New "Load.BT_7327_M2" bus1="UC13253.1.2.4" phases=2 conn=delta model=3 kv=0.38 kw = 362.3244503365846 pf=0.92 status=variable vmaxpu=1.5 vminpu=0.93 daily="RES_2_SA"
 
New "Load.BT_1829_M1" bus1="UC15079.3.4" phases=1 conn=delta model=2 kv=0.22 kw = 492.4731319510806 pf=0.92 status=variable vmaxpu=1.5 vminpu=0.93 daily="RES_11_SA" 
New "Load.BT_1829_M2" bus1="UC15079.3.4" phases=1 conn=delta model=3 kv=0.22 kw = 492.4731319510806 pf=0.92 status=variable vmaxpu=1.5 vminpu=0.93 daily="RES_11_SA"
 
New "Load.BT_1959_M1" bus1="UC2860.2.4" phases=1 conn=delta model=2 kv=0.22 kw = 458.72269859127226 pf=0.92 status=variable vmaxpu=1.5 vminpu=0.93 daily="RES_2_SA" 
New "Load.BT_1959_M2" bus1="UC2860.2.4" phases=1 conn=delta model=3 kv=0.22 kw = 458.72269859127226 pf=0.92 status=variable vmaxpu=1.5 vminpu=0.93 daily="RES_2_SA"
 
New "Load.BT_3034_M1" bus1="UC14783.1.2.3.4" phases=3 conn=delta model=2 kv=0.38 kw = 1439.055979443181 pf=0.92 status=variable vmaxpu=1.5 vminpu=0.93 daily="RES_5_SA" 
New "Load.BT_3034_M2" bus1="UC14783.1.2.3.4" phases=3 conn=delta model=3 kv=0.38 kw = 1439.055979443181 pf=0.92 status=variable vmaxpu=1.5 vminpu=0.93 daily="RES_5_SA"
 
New "Load.BT_901_M1" bus1="UC5377.3.4" phases=1 conn=delta model=2 kv=0.22 kw = 0.0 pf=0.92 status=variable vmaxpu=1.5 vminpu=0.93 daily="COM_5_SA" 
New "Load.BT_901_M2" bus1="UC5377.3.4" phases=1 conn=delta model=3 kv=0.22 kw = 0.0 pf=0.92 status=variable vmaxpu=1.5 vminpu=0.93 daily="COM_5_SA"
 
New "Load.BT_1124_M1" bus1="UC15362.3.1.4" phases=2 conn=delta model=2 kv=0.38 kw = 0.0 pf=0.92 status=variable vmaxpu=1.5 vminpu=0.93 daily="RES_3_SA" 
New "Load.BT_1124_M2" bus1="UC15362.3.1.4" phases=2 conn=delta model=3 kv=0.38 kw = 0.0 pf=0.92 status=variable vmaxpu=1.5 vminpu=0.93 daily="RES_3_SA"
 
New "Load.BT_1124_M1" bus1="UC15362.1.2.4" phases=2 conn=delta model=2 kv=0.38 kw = 0.0 pf=0.92 status=variable vmaxpu=1.5 vminpu=0.93 daily="RES_3_SA" 
New "Load.BT_1124_M2" bus1="UC15362.1.2.4" phases=2 conn=delta model=3 kv=0.38 kw = 0.0 pf=0.92 status=variable vmaxpu=1.5 vminpu=0.93 daily="RES_3_SA"
 
New "Load.BT_2344_M1" bus1="UC2835.3.4" phases=1 conn=delta model=2 kv=0.22 kw = 0.0 pf=0.92 status=variable vmaxpu=1.5 vminpu=0.93 daily="RES_3_SA" 
New "Load.BT_2344_M2" bus1="UC2835.3.4" phases=1 conn=delta model=3 kv=0.22 kw = 0.0 pf=0.92 status=variable vmaxpu=1.5 vminpu=0.93 daily="RES_3_SA"
 
New "Load.BT_7439_M1" bus1="UC16096.2.4" phases=1 conn=delta model=2 kv=0.22 kw = 0.0 pf=0.92 status=variable vmaxpu=1.5 vminpu=0.93 daily="RES_7_SA" 
New "Load.BT_7439_M2" bus1="UC16096.2.4" phases=1 conn=delta model=3 kv=0.22 kw = 0.0 pf=0.92 status=variable vmaxpu=1.5 vminpu=0.93 daily="RES_7_SA"
 
New "Load.BT_6954_M1" bus1="UC16099.3.4" phases=1 conn=delta model=2 kv=0.22 kw = 0.0 pf=0.92 status=variable vmaxpu=1.5 vminpu=0.93 daily="COM_1_SA" 
New "Load.BT_6954_M2" bus1="UC16099.3.4" phases=1 conn=delta model=3 kv=0.22 kw = 0.0 pf=0.92 status=variable vmaxpu=1.5 vminpu=0.93 daily="COM_1_SA"
 
New "Load.BT_1112_M1" bus1="UC8981.3.4" phases=1 conn=delta model=2 kv=0.22 kw = 0.0 pf=0.92 status=variable vmaxpu=1.5 vminpu=0.93 daily="RES_7_SA" 
New "Load.BT_1112_M2" bus1="UC8981.3.4" phases=1 conn=delta model=3 kv=0.22 kw = 0.0 pf=0.92 status=variable vmaxpu=1.5 vminpu=0.93 daily="RES_7_SA"
 
New "Load.BT_2626_M1" bus1="UC16100.3.4" phases=1 conn=delta model=2 kv=0.22 kw = 0.0 pf=0.92 status=variable vmaxpu=1.5 vminpu=0.93 daily="RES_3_SA" 
New "Load.BT_2626_M2" bus1="UC16100.3.4" phases=1 conn=delta model=3 kv=0.22 kw = 0.0 pf=0.92 status=variable vmaxpu=1.5 vminpu=0.93 daily="RES_3_SA"
 
New "Load.BT_1516_M1" bus1="UC16103.3.4" phases=1 conn=delta model=2 kv=0.22 kw = 0.0 pf=0.92 status=variable vmaxpu=1.5 vminpu=0.93 daily="RES_3_SA" 
New "Load.BT_1516_M2" bus1="UC16103.3.4" phases=1 conn=delta model=3 kv=0.22 kw = 0.0 pf=0.92 status=variable vmaxpu=1.5 vminpu=0.93 daily="RES_3_SA"
 
New "Load.BT_2623_M1" bus1="UC15510.1.2.4" phases=2 conn=delta model=2 kv=0.38 kw = 0.0 pf=0.92 status=variable vmaxpu=1.5 vminpu=0.93 daily="RES_3_SA" 
New "Load.BT_2623_M2" bus1="UC15510.1.2.4" phases=2 conn=delta model=3 kv=0.38 kw = 0.0 pf=0.92 status=variable vmaxpu=1.5 vminpu=0.93 daily="RES_3_SA"
 
New "Load.BT_1124_M1" bus1="UC15362.1.2.3.4" phases=3 conn=delta model=2 kv=0.38 kw = 0.0 pf=0.92 status=variable vmaxpu=1.5 vminpu=0.93 daily="COM_5_SA" 
New "Load.BT_1124_M2" bus1="UC15362.1.2.3.4" phases=3 conn=delta model=3 kv=0.38 kw = 0.0 pf=0.92 status=variable vmaxpu=1.5 vminpu=0.93 daily="COM_5_SA"
 
New "Load.BT_2214_M1" bus1="UC11074.3.4" phases=1 conn=delta model=2 kv=0.22 kw = 0.0 pf=0.92 status=variable vmaxpu=1.5 vminpu=0.93 daily="COM_5_SA" 
New "Load.BT_2214_M2" bus1="UC11074.3.4" phases=1 conn=delta model=3 kv=0.22 kw = 0.0 pf=0.92 status=variable vmaxpu=1.5 vminpu=0.93 daily="COM_5_SA"
 
New "Load.BT_8544_M1" bus1="UC16080.2.4" phases=1 conn=delta model=2 kv=0.22 kw = 0.0 pf=0.92 status=variable vmaxpu=1.5 vminpu=0.93 daily="RES_7_SA" 
New "Load.BT_8544_M2" bus1="UC16080.2.4" phases=1 conn=delta model=3 kv=0.22 kw = 0.0 pf=0.92 status=variable vmaxpu=1.5 vminpu=0.93 daily="RES_7_SA"
 
New "Load.BT_387_M1" bus1="UC15581.1.2.3.4" phases=3 conn=delta model=2 kv=0.38 kw = 0.0 pf=0.92 status=variable vmaxpu=1.5 vminpu=0.93 daily="RES_3_SA" 
New "Load.BT_387_M2" bus1="UC15581.1.2.3.4" phases=3 conn=delta model=3 kv=0.38 kw = 0.0 pf=0.92 status=variable vmaxpu=1.5 vminpu=0.93 daily="RES_3_SA"
 
New "Load.BT_1113_M1" bus1="UC6951.3.4" phases=1 conn=delta model=2 kv=0.22 kw = 0.0 pf=0.92 status=variable vmaxpu=1.5 vminpu=0.93 daily="RES_7_SA" 
New "Load.BT_1113_M2" bus1="UC6951.3.4" phases=1 conn=delta model=3 kv=0.22 kw = 0.0 pf=0.92 status=variable vmaxpu=1.5 vminpu=0.93 daily="RES_7_SA"
 
New "Load.BT_539_M1" bus1="UC11814.1.2.4" phases=2 conn=delta model=2 kv=0.38 kw = 0.0 pf=0.92 status=variable vmaxpu=1.5 vminpu=0.93 daily="RES_3_SA" 
New "Load.BT_539_M2" bus1="UC11814.1.2.4" phases=2 conn=delta model=3 kv=0.38 kw = 0.0 pf=0.92 status=variable vmaxpu=1.5 vminpu=0.93 daily="RES_3_SA"
 
New "Load.BT_1858_M1" bus1="UC5368.1.2.3.4" phases=3 conn=delta model=2 kv=0.38 kw = 0.0 pf=0.92 status=variable vmaxpu=1.5 vminpu=0.93 daily="RES_3_SA" 
New "Load.BT_1858_M2" bus1="UC5368.1.2.3.4" phases=3 conn=delta model=3 kv=0.38 kw = 0.0 pf=0.92 status=variable vmaxpu=1.5 vminpu=0.93 daily="RES_3_SA"
 
New "Load.BT_539_M1" bus1="UC11814.3.1.4" phases=2 conn=delta model=2 kv=0.38 kw = 0.0 pf=0.92 status=variable vmaxpu=1.5 vminpu=0.93 daily="RES_7_SA" 
New "Load.BT_539_M2" bus1="UC11814.3.1.4" phases=2 conn=delta model=3 kv=0.38 kw = 0.0 pf=0.92 status=variable vmaxpu=1.5 vminpu=0.93 daily="RES_7_SA"
 
New "Load.BT_7327_M1" bus1="UC13253.1.2.4" phases=2 conn=delta model=2 kv=0.38 kw = 0.0 pf=0.92 status=variable vmaxpu=1.5 vminpu=0.93 daily="RES_3_SA" 
New "Load.BT_7327_M2" bus1="UC13253.1.2.4" phases=2 conn=delta model=3 kv=0.38 kw = 0.0 pf=0.92 status=variable vmaxpu=1.5 vminpu=0.93 daily="RES_3_SA"
 
New "Load.BT_2623_M1" bus1="UC15510.3.1.4" phases=2 conn=delta model=2 kv=0.38 kw = 0.0 pf=0.92 status=variable vmaxpu=1.5 vminpu=0.93 daily="RES_7_SA" 
New "Load.BT_2623_M2" bus1="UC15510.3.1.4" phases=2 conn=delta model=3 kv=0.38 kw = 0.0 pf=0.92 status=variable vmaxpu=1.5 vminpu=0.93 daily="RES_7_SA"
 
New "Load.BT_2215_M1" bus1="UC12303.2.4" phases=1 conn=delta model=2 kv=0.22 kw = 0.0 pf=0.92 status=variable vmaxpu=1.5 vminpu=0.93 daily="RES_7_SA" 
New "Load.BT_2215_M2" bus1="UC12303.2.4" phases=1 conn=delta model=3 kv=0.22 kw = 0.0 pf=0.92 status=variable vmaxpu=1.5 vminpu=0.93 daily="RES_7_SA"
 
New "Load.BT_358_M1" bus1="UC12262.1.4" phases=1 conn=delta model=2 kv=0.22 kw = 0.0 pf=0.92 status=variable vmaxpu=1.5 vminpu=0.93 daily="RES_7_SA" 
New "Load.BT_358_M2" bus1="UC12262.1.4" phases=1 conn=delta model=3 kv=0.22 kw = 0.0 pf=0.92 status=variable vmaxpu=1.5 vminpu=0.93 daily="RES_7_SA"
 
New "Load.BT_555_M1" bus1="UC15769.2.4" phases=1 conn=delta model=2 kv=0.22 kw = 452.0745435392248 pf=0.92 status=variable vmaxpu=1.5 vminpu=0.93 daily="RES_2_SA" 
New "Load.BT_555_M2" bus1="UC15769.2.4" phases=1 conn=delta model=3 kv=0.22 kw = 452.0745435392248 pf=0.92 status=variable vmaxpu=1.5 vminpu=0.93 daily="RES_2_SA"
 
New "Load.BT_1430_M1" bus1="UC9154.3.4" phases=1 conn=delta model=2 kv=0.22 kw = 751.2366185405675 pf=0.92 status=variable vmaxpu=1.5 vminpu=0.93 daily="COM_1_SA" 
New "Load.BT_1430_M2" bus1="UC9154.3.4" phases=1 conn=delta model=3 kv=0.22 kw = 751.2366185405675 pf=0.92 status=variable vmaxpu=1.5 vminpu=0.93 daily="COM_1_SA"
 
New "Load.BT_2920_M1" bus1="UC15771.1.2.3.4" phases=3 conn=delta model=2 kv=0.38 kw = 452.07159345804064 pf=0.92 status=variable vmaxpu=1.5 vminpu=0.93 daily="COM_1_SA" 
New "Load.BT_2920_M2" bus1="UC15771.1.2.3.4" phases=3 conn=delta model=3 kv=0.38 kw = 452.07159345804064 pf=0.92 status=variable vmaxpu=1.5 vminpu=0.93 daily="COM_1_SA"
 
New "Load.BT_7655_M1" bus1="UC15774.1.4" phases=1 conn=delta model=2 kv=0.22 kw = 312.46328744622895 pf=0.92 status=variable vmaxpu=1.5 vminpu=0.93 daily="RES_2_SA" 
New "Load.BT_7655_M2" bus1="UC15774.1.4" phases=1 conn=delta model=3 kv=0.22 kw = 312.46328744622895 pf=0.92 status=variable vmaxpu=1.5 vminpu=0.93 daily="RES_2_SA"
 
New "Load.BT_1880_M1" bus1="UC5019.1.4" phases=1 conn=delta model=2 kv=0.22 kw = 531.852404163794 pf=0.92 status=variable vmaxpu=1.5 vminpu=0.93 daily="RES_2_SA" 
New "Load.BT_1880_M2" bus1="UC5019.1.4" phases=1 conn=delta model=3 kv=0.22 kw = 531.852404163794 pf=0.92 status=variable vmaxpu=1.5 vminpu=0.93 daily="RES_2_SA"
 
New "Load.BT_1209_M1" bus1="UC15445.3.4" phases=1 conn=delta model=2 kv=0.22 kw = 491.9634738515094 pf=0.92 status=variable vmaxpu=1.5 vminpu=0.93 daily="RES_2_SA" 
New "Load.BT_1209_M2" bus1="UC15445.3.4" phases=1 conn=delta model=3 kv=0.22 kw = 491.9634738515094 pf=0.92 status=variable vmaxpu=1.5 vminpu=0.93 daily="RES_2_SA"
 
New "Load.BT_2215_M1" bus1="UC7160.1.4" phases=1 conn=delta model=2 kv=0.22 kw = 124.65209378438621 pf=0.92 status=variable vmaxpu=1.5 vminpu=0.93 daily="COM_1_SA" 
New "Load.BT_2215_M2" bus1="UC7160.1.4" phases=1 conn=delta model=3 kv=0.22 kw = 124.65209378438621 pf=0.92 status=variable vmaxpu=1.5 vminpu=0.93 daily="COM_1_SA"
 
New "Load.BT_628_M1" bus1="UC7914.1.4" phases=1 conn=delta model=2 kv=0.22 kw = 83.10139585625747 pf=0.92 status=variable vmaxpu=1.5 vminpu=0.93 daily="COM_1_SA" 
New "Load.BT_628_M2" bus1="UC7914.1.4" phases=1 conn=delta model=3 kv=0.22 kw = 83.10139585625747 pf=0.92 status=variable vmaxpu=1.5 vminpu=0.93 daily="COM_1_SA"
 
New "Load.BT_1234_M1" bus1="UC15448.1.4" phases=1 conn=delta model=2 kv=0.22 kw = 182.8242639313042 pf=0.92 status=variable vmaxpu=1.5 vminpu=0.93 daily="RES_2_SA" 
New "Load.BT_1234_M2" bus1="UC15448.1.4" phases=1 conn=delta model=3 kv=0.22 kw = 182.8242639313042 pf=0.92 status=variable vmaxpu=1.5 vminpu=0.93 daily="RES_2_SA"
 
New "Load.BT_1380_M1" bus1="UC10064.3.4" phases=1 conn=delta model=2 kv=0.22 kw = 1109.7986072137028 pf=0.92 status=variable vmaxpu=1.5 vminpu=0.93 daily="RES_11_SA" 
New "Load.BT_1380_M2" bus1="UC10064.3.4" phases=1 conn=delta model=3 kv=0.22 kw = 1109.7986072137028 pf=0.92 status=variable vmaxpu=1.5 vminpu=0.93 daily="RES_11_SA"
 
New "Load.BT_785_M1" bus1="UC9638.3.4" phases=1 conn=delta model=2 kv=0.22 kw = 781.3123014072588 pf=0.92 status=variable vmaxpu=1.5 vminpu=0.93 daily="RES_1_SA" 
New "Load.BT_785_M2" bus1="UC9638.3.4" phases=1 conn=delta model=3 kv=0.22 kw = 781.3123014072588 pf=0.92 status=variable vmaxpu=1.5 vminpu=0.93 daily="RES_1_SA"
 
New "Load.BT_7701_M1" bus1="UC15452.1.2.3.4" phases=3 conn=delta model=2 kv=0.38 kw = 1086.973351009754 pf=0.92 status=variable vmaxpu=1.5 vminpu=0.93 daily="RES_2_SA" 
New "Load.BT_7701_M2" bus1="UC15452.1.2.3.4" phases=3 conn=delta model=3 kv=0.38 kw = 1086.973351009754 pf=0.92 status=variable vmaxpu=1.5 vminpu=0.93 daily="RES_2_SA"
 
New "Load.BT_387_M1" bus1="UC15581.1.4" phases=1 conn=delta model=2 kv=0.22 kw = 0.0 pf=0.92 status=variable vmaxpu=1.5 vminpu=0.93 daily="RES_3_SA" 
New "Load.BT_387_M2" bus1="UC15581.1.4" phases=1 conn=delta model=3 kv=0.22 kw = 0.0 pf=0.92 status=variable vmaxpu=1.5 vminpu=0.93 daily="RES_3_SA"
 
New "Load.BT_3034_M1" bus1="UC14783.1.2.3.4" phases=3 conn=delta model=2 kv=0.38 kw = 0.0 pf=0.92 status=variable vmaxpu=1.5 vminpu=0.93 daily="RES_3_SA" 
New "Load.BT_3034_M2" bus1="UC14783.1.2.3.4" phases=3 conn=delta model=3 kv=0.38 kw = 0.0 pf=0.92 status=variable vmaxpu=1.5 vminpu=0.93 daily="RES_3_SA"
 
New "Load.BT_1124_M1" bus1="UC8867.1.4" phases=1 conn=delta model=2 kv=0.22 kw = 0.0 pf=0.92 status=variable vmaxpu=1.5 vminpu=0.93 daily="RES_3_SA" 
New "Load.BT_1124_M2" bus1="UC8867.1.4" phases=1 conn=delta model=3 kv=0.22 kw = 0.0 pf=0.92 status=variable vmaxpu=1.5 vminpu=0.93 daily="RES_3_SA"
 
New "Load.BT_121_M1" bus1="UC12650.2.3.4" phases=2 conn=delta model=2 kv=0.38 kw = 0.0 pf=0.92 status=variable vmaxpu=1.5 vminpu=0.93 daily="RES_7_SA" 
New "Load.BT_121_M2" bus1="UC12650.2.3.4" phases=2 conn=delta model=3 kv=0.38 kw = 0.0 pf=0.92 status=variable vmaxpu=1.5 vminpu=0.93 daily="RES_7_SA"
 
New "Load.BT_239_M1" bus1="UC16074.1.2.3.4" phases=3 conn=delta model=2 kv=0.38 kw = 0.0 pf=0.92 status=variable vmaxpu=1.5 vminpu=0.93 daily="RES_3_SA" 
New "Load.BT_239_M2" bus1="UC16074.1.2.3.4" phases=3 conn=delta model=3 kv=0.38 kw = 0.0 pf=0.92 status=variable vmaxpu=1.5 vminpu=0.93 daily="RES_3_SA"
 
New "Load.BT_8152_M1" bus1="UC16078.1.2.4" phases=2 conn=delta model=2 kv=0.38 kw = 0.0 pf=0.92 status=variable vmaxpu=1.5 vminpu=0.93 daily="RES_7_SA" 
New "Load.BT_8152_M2" bus1="UC16078.1.2.4" phases=2 conn=delta model=3 kv=0.38 kw = 0.0 pf=0.92 status=variable vmaxpu=1.5 vminpu=0.93 daily="RES_7_SA"
 
New "Load.BT_8398_M1" bus1="UC15580.2.4" phases=1 conn=delta model=2 kv=0.22 kw = 462.04677611729596 pf=0.92 status=variable vmaxpu=1.5 vminpu=0.93 daily="RES_2_SA" 
New "Load.BT_8398_M2" bus1="UC15580.2.4" phases=1 conn=delta model=3 kv=0.22 kw = 462.04677611729596 pf=0.92 status=variable vmaxpu=1.5 vminpu=0.93 daily="RES_2_SA"
 
New "Load.BT_2466_M1" bus1="UC15707.1.4" phases=1 conn=delta model=2 kv=0.22 kw = 428.80600085705885 pf=0.92 status=variable vmaxpu=1.5 vminpu=0.93 daily="RES_2_SA" 
New "Load.BT_2466_M2" bus1="UC15707.1.4" phases=1 conn=delta model=3 kv=0.22 kw = 428.80600085705885 pf=0.92 status=variable vmaxpu=1.5 vminpu=0.93 daily="RES_2_SA"
 
New "Load.BT_2214_M1" bus1="UC11074.1.4" phases=1 conn=delta model=2 kv=0.22 kw = 131.30020545288681 pf=0.92 status=variable vmaxpu=1.5 vminpu=0.93 daily="COM_1_SA" 
New "Load.BT_2214_M2" bus1="UC11074.1.4" phases=1 conn=delta model=3 kv=0.22 kw = 131.30020545288681 pf=0.92 status=variable vmaxpu=1.5 vminpu=0.93 daily="COM_1_SA"
 
New "Load.BT_1112_M1" bus1="UC8981.2.4" phases=1 conn=delta model=2 kv=0.22 kw = 252.62989197780212 pf=0.92 status=variable vmaxpu=1.5 vminpu=0.93 daily="RES_2_SA" 
New "Load.BT_1112_M2" bus1="UC8981.2.4" phases=1 conn=delta model=3 kv=0.22 kw = 252.62989197780212 pf=0.92 status=variable vmaxpu=1.5 vminpu=0.93 daily="RES_2_SA"
 
New "Load.BT_6942_M1" bus1="UC15761.1.2.3.4" phases=3 conn=delta model=2 kv=0.38 kw = 53.18524041637939 pf=0.92 status=variable vmaxpu=1.5 vminpu=0.93 daily="RES_2_SA" 
New "Load.BT_6942_M2" bus1="UC15761.1.2.3.4" phases=3 conn=delta model=3 kv=0.38 kw = 53.18524041637939 pf=0.92 status=variable vmaxpu=1.5 vminpu=0.93 daily="RES_2_SA"
 
New "Load.BT_2085_M1" bus1="UC15760.1.2.3.4" phases=3 conn=delta model=2 kv=0.38 kw = 1.6620279171251495 pf=0.92 status=variable vmaxpu=1.5 vminpu=0.93 daily="COM_1_SA" 
New "Load.BT_2085_M2" bus1="UC15760.1.2.3.4" phases=3 conn=delta model=3 kv=0.38 kw = 1.6620279171251495 pf=0.92 status=variable vmaxpu=1.5 vminpu=0.93 daily="COM_1_SA"
 
New "Load.BT_702_M1" bus1="UC8051.1.2.4" phases=2 conn=delta model=2 kv=0.38 kw = 2007.7428257183221 pf=0.92 status=variable vmaxpu=1.5 vminpu=0.93 daily="RES_2_SA" 
New "Load.BT_702_M2" bus1="UC8051.1.2.4" phases=2 conn=delta model=3 kv=0.38 kw = 2007.7428257183221 pf=0.92 status=variable vmaxpu=1.5 vminpu=0.93 daily="RES_2_SA"
 
New "Load.BT_7425_M1" bus1="UC15763.3.4" phases=1 conn=delta model=2 kv=0.22 kw = 0.0 pf=0.92 status=variable vmaxpu=1.5 vminpu=0.93 daily="RES_2_SA" 
New "Load.BT_7425_M2" bus1="UC15763.3.4" phases=1 conn=delta model=3 kv=0.22 kw = 0.0 pf=0.92 status=variable vmaxpu=1.5 vminpu=0.93 daily="RES_2_SA"
 
New "Load.BT_854_M1" bus1="UC13201.2.4" phases=1 conn=delta model=2 kv=0.22 kw = 654.8432726266714 pf=0.92 status=variable vmaxpu=1.5 vminpu=0.93 daily="RES_2_SA" 
New "Load.BT_854_M2" bus1="UC13201.2.4" phases=1 conn=delta model=3 kv=0.22 kw = 654.8432726266714 pf=0.92 status=variable vmaxpu=1.5 vminpu=0.93 daily="RES_2_SA"
 
New "Load.BT_854_M1" bus1="UC13201.3.4" phases=1 conn=delta model=2 kv=0.22 kw = 904.1490870784496 pf=0.92 status=variable vmaxpu=1.5 vminpu=0.93 daily="RES_2_SA" 
New "Load.BT_854_M2" bus1="UC13201.3.4" phases=1 conn=delta model=3 kv=0.22 kw = 904.1490870784496 pf=0.92 status=variable vmaxpu=1.5 vminpu=0.93 daily="RES_2_SA"
 
New "Load.BT_3034_M1" bus1="UC14783.1.2.3.4" phases=3 conn=delta model=2 kv=0.38 kw = 608.0771535358414 pf=0.92 status=variable vmaxpu=1.5 vminpu=0.93 daily="RES_11_SA" 
New "Load.BT_3034_M2" bus1="UC14783.1.2.3.4" phases=3 conn=delta model=3 kv=0.38 kw = 608.0771535358414 pf=0.92 status=variable vmaxpu=1.5 vminpu=0.93 daily="RES_11_SA"
 
New "Load.BT_1436_M1" bus1="UC14964.2.4" phases=1 conn=delta model=2 kv=0.22 kw = 462.4808241513819 pf=0.92 status=variable vmaxpu=1.5 vminpu=0.93 daily="RES_1_SA" 
New "Load.BT_1436_M2" bus1="UC14964.2.4" phases=1 conn=delta model=3 kv=0.22 kw = 462.4808241513819 pf=0.92 status=variable vmaxpu=1.5 vminpu=0.93 daily="RES_1_SA"
 
New "Load.BT_490_M1" bus1="UC6077.1.4" phases=1 conn=delta model=2 kv=0.22 kw = 708.0285130430507 pf=0.92 status=variable vmaxpu=1.5 vminpu=0.93 daily="RES_2_SA" 
New "Load.BT_490_M2" bus1="UC6077.1.4" phases=1 conn=delta model=3 kv=0.22 kw = 708.0285130430507 pf=0.92 status=variable vmaxpu=1.5 vminpu=0.93 daily="RES_2_SA"
 
New "Load.BT_18_M1" bus1="UC5043.1.4" phases=1 conn=delta model=2 kv=0.22 kw = 206.09146172351853 pf=0.92 status=variable vmaxpu=1.5 vminpu=0.93 daily="COM_1_SA" 
New "Load.BT_18_M2" bus1="UC5043.1.4" phases=1 conn=delta model=3 kv=0.22 kw = 206.09146172351853 pf=0.92 status=variable vmaxpu=1.5 vminpu=0.93 daily="COM_1_SA"
 
New "Load.BT_1105_M1" bus1="UC8362.3.4" phases=1 conn=delta model=2 kv=0.22 kw = 697.995383958638 pf=0.92 status=variable vmaxpu=1.5 vminpu=0.93 daily="RES_13_SA" 
New "Load.BT_1105_M2" bus1="UC8362.3.4" phases=1 conn=delta model=3 kv=0.22 kw = 697.995383958638 pf=0.92 status=variable vmaxpu=1.5 vminpu=0.93 daily="RES_13_SA"
 
New "Load.BT_3010_M1" bus1="UC14890.1.2.3.4" phases=3 conn=delta model=2 kv=0.38 kw = 305.81513239418155 pf=0.92 status=variable vmaxpu=1.5 vminpu=0.93 daily="RES_2_SA" 
...