output/1_TAP2_1/Cargas_MT_SA06_1_TAP2_1.dss
New "Load.MT_8447_0_M1" bus1="84471.1.2.3.4" phases=3 conn=delta model=2 kv=13.8 kw = 26.829214423298836 pf=0.92 status=variable vmaxpu=1.5 vminpu=0.93 daily="6_SA" 
New "Load.MT_8447_0_M2" bus1="84471.1.2.3.4" phases=3 conn=delta model=3 kv=13.8 kw = 26.829214423298836 pf=0.92 status=variable vmaxpu=1.5 vminpu=0.93 daily="6_SA"
 
New "Load.MT_8366_2_M1" bus1="83661.1.2.3.4" phases=3 conn=delta model=2 kv=13.8 kw = 2.5645833333333337 pf=0.92 status=variable vmaxpu=1.5 vminpu=0.93 daily="4_SA" 
New "Load.MT_8366_2_M2" bus1="83661.1.2.3.4" phases=3 conn=delta model=3 kv=13.8 kw = 2.5645833333333337 pf=0.92 status=variable vmaxpu=1.5 vminpu=0.93 daily="4_SA"
 
New "Load.MT_8392_3_M1" bus1="83921.1.2.3.4" phases=3 conn=delta model=2 kv=13.8 kw = 8.975528268225181 pf=0.92 status=variable vmaxpu=1.5 vminpu=0.93 daily="6_SA" 
New "Load.MT_8392_3_M2" bus1="83921.1.2.3.4" phases=3 conn=delta model=3 kv=13.8 kw = 8.975528268225181 pf=0.92 status=variable vmaxpu=1.5 vminpu=0.93 daily="6_SA"
 
New "Load.MT_6931_4_M1" bus1="69311.1.2.3.4" phases=3 conn=delta model=2 kv=13.8 kw = 624.6648751668027 pf=0.92 status=variable vmaxpu=1.5 vminpu=0.93 daily="3_SA" 
New "Load.MT_6931_4_M2" bus1="69311.1.2.3.4" phases=3 conn=delta model=3 kv=13.8 kw = 624.6648751668027 pf=0.92 status=variable vmaxpu=1.5 vminpu=0.93 daily="3_SA"
 
New "Load.MT_8108_6_M1" bus1="81081.1.2.3.4" phases=3 conn=delta model=2 kv=13.8 kw = 11.118595247016437 pf=0.92 status=variable vmaxpu=1.5 vminpu=0.93 daily="6_SA" 
New "Load.MT_8108_6_M2" bus1="81081.1.2.3.4" phases=3 conn=delta model=3 kv=13.8 kw = 11.118595247016437 pf=0.92 status=variable vmaxpu=1.5 vminpu=0.93 daily="6_SA"
 
New "Load.MT_983_10_M1" bus1="9831.1.2.3.4" phases=3 conn=delta model=2 kv=13.8 kw = 52.194198771932754 pf=0.92 status=variable vmaxpu=1.5 vminpu=0.93 daily="6_SA" 
New "Load.MT_983_10_M2" bus1="9831.1.2.3.4" phases=3 conn=delta model=3 kv=13.8 kw = 52.194198771932754 pf=0.92 status=variable vmaxpu=1.5 vminpu=0.93 daily="6_SA"
 
New "Load.MT_7525_13_M1" bus1="75251.1.2.3.4" phases=3 conn=delta model=2 kv=13.8 kw = 2.1482171046012084 pf=0.92 status=variable vmaxpu=1.5 vminpu=0.93 daily="5_SA" 
New "Load.MT_7525_13_M2" bus1="75251.1.2.3.4" phases=3 conn=delta model=3 kv=13.8 kw = 2.1482171046012084 pf=0.92 status=variable vmaxpu=1.5 vminpu=0.93 daily="5_SA"
 
New "Load.MT_7286_14_M1" bus1="72861.1.2.3.4" phases=3 conn=delta model=2 kv=13.8 kw = 28.157961804115804 pf=0.92 status=variable vmaxpu=1.5 vminpu=0.93 daily="9_SA" 
New "Load.MT_7286_14_M2" bus1="72861.1.2.3.4" phases=3 conn=delta model=3 kv=13.8 kw = 28.157961804115804 pf=0.92 status=variable vmaxpu=1.5 vminpu=0.93 daily="9_SA"
 
New "Load.MT_6804_16_M1" bus1="68041.1.2.3.4" phases=3 conn=delta model=2 kv=13.8 kw = 0.5147220045943952 pf=0.92 status=variable vmaxpu=1.5 vminpu=0.93 daily="1_SA" 
New "Load.MT_6804_16_M2" bus1="68041.1.2.3.4" phases=3 conn=delta model=3 kv=13.8 kw = 0.5147220045943952 pf=0.92 status=variable vmaxpu=1.5 vminpu=0.93 daily="1_SA"
 
New "Load.MT_6914_17_M1" bus1="69141.1.2.3.4" phases=3 conn=delta model=2 kv=13.8 kw = 43.45713136121886 pf=0.92 status=variable vmaxpu=1.5 vminpu=0.93 daily="7_SA" 
New "Load.MT_6914_17_M2" bus1="69141.1.2.3.4" phases=3 conn=delta model=3 kv=13.8 kw = 43.45713136121886 pf=0.92 status=variable vmaxpu=1.5 vminpu=0.93 daily="7_SA"
 
New "Load.MT_822_18_M1" bus1="8221.1.2.3.4" phases=3 conn=delta model=2 kv=13.8 kw = 0.9511021079225699 pf=0.92 status=variable vmaxpu=1.5 vminpu=0.93 daily="1_SA" 
New "Load.MT_822_18_M2" bus1="8221.1.2.3.4" phases=3 conn=delta model=3 kv=13.8 kw = 0.9511021079225699 pf=0.92 status=variable vmaxpu=1.5 vminpu=0.93 daily="1_SA"
 
New "Load.MT_6806_19_M1" bus1="68061.1.2.3.4" phases=3 conn=delta model=2 kv=13.8 kw = 0.8782598530203102 pf=0.92 status=variable vmaxpu=1.5 vminpu=0.93 daily="1_SA" 
New "Load.MT_6806_19_M2" bus1="68061.1.2.3.4" phases=3 conn=delta model=3 kv=13.8 kw = 0.8782598530203102 pf=0.92 status=variable vmaxpu=1.5 vminpu=0.93 daily="1_SA"
 
New "Load.MT_2005_22_M1" bus1="20051.1.2.3.4" phases=3 conn=delta model=2 kv=13.8 kw = 3.0078948690740988 pf=0.92 status=variable vmaxpu=1.5 vminpu=0.93 daily="2_SA" 
New "Load.MT_2005_22_M2" bus1="20051.1.2.3.4" phases=3 conn=delta model=3 kv=13.8 kw = 3.0078948690740988 pf=0.92 status=variable vmaxpu=1.5 vminpu=0.93 daily="2_SA"
 
New "Load.MT_7479_23_M1" bus1="74791.1.2.3.4" phases=3 conn=delta model=2 kv=13.8 kw = 4.85929538423606 pf=0.92 status=variable vmaxpu=1.5 vminpu=0.93 daily="2_SA" 
New "Load.MT_7479_23_M2" bus1="74791.1.2.3.4" phases=3 conn=delta model=3 kv=13.8 kw = 4.85929538423606 pf=0.92 status=variable vmaxpu=1.5 vminpu=0.93 daily="2_SA"
 
New "Load.MT_1443_24_M1" bus1="14431.1.2.3.4" phases=3 conn=delta model=2 kv=13.8 kw = 0.10337090410628827 pf=0.92 status=variable vmaxpu=1.5 vminpu=0.93 daily="1_SA" 
New "Load.MT_1443_24_M2" bus1="14431.1.2.3.4" phases=3 conn=delta model=3 kv=13.8 kw = 0.10337090410628827 pf=0.92 status=variable vmaxpu=1.5 vminpu=0.93 daily="1_SA"
 
...